<?xml version="1.0" encoding="UTF-8"?>

<!-- generated on 10/05/20 02:08:21 by Eclipse SUMO netedit Version 1.6.0
<configuration xmlns:xsi="http://www.w3.org/2001/XMLSchema-instance" xsi:noNamespaceSchemaLocation="http://sumo.dlr.de/xsd/netconvertConfiguration.xsd">

    <input>
        <sumo-net-file value="C:\Users\mahbub\Desktop\Project1\braddock.net.xml"/>
    </input>

    <output>
        <output-file value="C:\Users\mahbub\Desktop\Project1\braddock.net.xml"/>
    </output>

    <processing>
        <geometry.min-radius.fix.railways value="false"/>
        <geometry.max-grade.fix value="false"/>
        <offset.disable-normalization value="true"/>
        <lefthand value="false"/>
    </processing>

    <junctions>
        <no-turnarounds value="true"/>
        <junctions.corner-detail value="5"/>
        <junctions.limit-turn-speed value="5.5"/>
        <rectangular-lane-cut value="false"/>
    </junctions>

    <pedestrian>
        <walkingareas value="false"/>
    </pedestrian>

    <report>
        <aggregate-warnings value="5"/>
    </report>

</configuration>
-->

<net version="1.6" junctionCornerDetail="5" limitTurnSpeed="5.50" xmlns:xsi="http://www.w3.org/2001/XMLSchema-instance" xsi:noNamespaceSchemaLocation="http://sumo.dlr.de/xsd/net_file.xsd">

    <location netOffset="-296862.99,-4298021.26" convBoundary="0.00,0.00,5540.12,3059.69" origBoundary="-77.340324,38.808252,-77.276022,38.836139" projParameter="+proj=utm +zone=18 +ellps=WGS84 +datum=WGS84 +units=m +no_defs"/>

    <type id="highway.bridleway" priority="1" numLanes="1" speed="2.78" allow="pedestrian" oneway="1" width="2.00"/>
    <type id="highway.bus_guideway" priority="1" numLanes="1" speed="27.78" allow="bus" oneway="1"/>
    <type id="highway.cycleway" priority="1" numLanes="1" speed="8.33" allow="bicycle" oneway="0" width="1.00"/>
    <type id="highway.footway" priority="1" numLanes="1" speed="2.78" allow="pedestrian" oneway="1" width="2.00"/>
    <type id="highway.ford" priority="1" numLanes="1" speed="2.78" allow="army" oneway="0"/>
    <type id="highway.living_street" priority="2" numLanes="1" speed="2.78" disallow="tram rail_urban rail rail_electric rail_fast ship" oneway="0"/>
    <type id="highway.motorway" priority="14" numLanes="2" speed="39.44" allow="private emergency authority army vip passenger hov taxi bus coach delivery truck trailer motorcycle evehicle custom1 custom2" oneway="1"/>
    <type id="highway.motorway_link" priority="9" numLanes="1" speed="22.22" allow="private emergency authority army vip passenger hov taxi bus coach delivery truck trailer motorcycle evehicle custom1 custom2" oneway="1"/>
    <type id="highway.path" priority="1" numLanes="1" speed="2.78" allow="pedestrian bicycle" oneway="1" width="2.00"/>
    <type id="highway.pedestrian" priority="1" numLanes="1" speed="2.78" allow="pedestrian" oneway="1" width="2.00"/>
    <type id="highway.primary" priority="12" numLanes="2" speed="27.78" disallow="tram rail_urban rail rail_electric rail_fast ship" oneway="0"/>
    <type id="highway.primary_link" priority="7" numLanes="1" speed="22.22" disallow="tram rail_urban rail rail_electric rail_fast ship" oneway="0"/>
    <type id="highway.raceway" priority="15" numLanes="2" speed="83.33" allow="vip" oneway="0"/>
    <type id="highway.residential" priority="3" numLanes="1" speed="13.89" disallow="tram rail_urban rail rail_electric rail_fast ship" oneway="0"/>
    <type id="highway.secondary" priority="11" numLanes="1" speed="27.78" disallow="tram rail_urban rail rail_electric rail_fast ship" oneway="0"/>
    <type id="highway.secondary_link" priority="6" numLanes="1" speed="22.22" disallow="tram rail_urban rail rail_electric rail_fast ship" oneway="0"/>
    <type id="highway.service" priority="1" numLanes="1" speed="5.56" allow="pedestrian delivery bicycle" oneway="0"/>
    <type id="highway.stairs" priority="1" numLanes="1" speed="1.39" allow="pedestrian" oneway="1" width="2.00"/>
    <type id="highway.step" priority="1" numLanes="1" speed="1.39" allow="pedestrian" oneway="1" width="2.00"/>
    <type id="highway.steps" priority="1" numLanes="1" speed="1.39" allow="pedestrian" oneway="1" width="2.00"/>
    <type id="highway.tertiary" priority="10" numLanes="1" speed="22.22" disallow="tram rail_urban rail rail_electric rail_fast ship" oneway="0"/>
    <type id="highway.tertiary_link" priority="5" numLanes="1" speed="22.22" disallow="tram rail_urban rail rail_electric rail_fast ship" oneway="0"/>
    <type id="highway.track" priority="1" numLanes="1" speed="5.56" disallow="tram rail_urban rail rail_electric rail_fast ship" oneway="0"/>
    <type id="highway.trunk" priority="13" numLanes="2" speed="27.78" disallow="pedestrian bicycle tram rail_urban rail rail_electric rail_fast ship" oneway="0"/>
    <type id="highway.trunk_link" priority="8" numLanes="1" speed="22.22" disallow="pedestrian bicycle tram rail_urban rail rail_electric rail_fast ship" oneway="0"/>
    <type id="highway.unclassified" priority="4" numLanes="1" speed="13.89" disallow="tram rail_urban rail rail_electric rail_fast ship" oneway="0"/>
    <type id="highway.unsurfaced" priority="1" numLanes="1" speed="8.33" disallow="tram rail_urban rail rail_electric rail_fast ship" oneway="0"/>
    <type id="railway.highspeed" priority="21" numLanes="1" speed="69.44" allow="rail_fast" oneway="1"/>
    <type id="railway.light_rail" priority="19" numLanes="1" speed="27.78" allow="rail_urban" oneway="1"/>
    <type id="railway.preserved" priority="16" numLanes="1" speed="27.78" allow="rail" oneway="1"/>
    <type id="railway.rail" priority="20" numLanes="1" speed="44.44" allow="rail" oneway="1"/>
    <type id="railway.subway" priority="18" numLanes="1" speed="27.78" allow="rail_urban" oneway="1"/>
    <type id="railway.tram" priority="17" numLanes="1" speed="13.89" allow="tram" oneway="1"/>

    <edge id=":1218414069_0" function="internal">
        <lane id=":1218414069_0_0" index="0" allow="pedestrian delivery bicycle" speed="5.41" length="5.54" shape="2026.09,1905.54 2024.68,1906.09 2023.74,1906.95 2023.27,1908.12 2023.28,1909.60"/>
    </edge>
    <edge id=":1218414069_1" function="internal">
        <lane id=":1218414069_1_0" index="0" allow="pedestrian delivery bicycle" speed="5.56" length="9.74" shape="2026.09,1905.54 2016.56,1907.51"/>
    </edge>
    <edge id=":1218414069_2" function="internal">
        <lane id=":1218414069_2_0" index="0" allow="pedestrian delivery bicycle" speed="3.65" length="4.67" shape="2026.09,1905.54 2024.74,1905.04 2024.17,1904.35 2024.37,1903.48 2025.35,1902.43"/>
    </edge>
    <edge id=":1218414069_3" function="internal">
        <lane id=":1218414069_3_0" index="0" allow="pedestrian delivery bicycle" speed="4.99" length="5.06" shape="2021.67,1900.03 2022.12,1901.36 2022.88,1902.20 2023.96,1902.55 2025.35,1902.43"/>
    </edge>
    <edge id=":1218414069_4" function="internal">
        <lane id=":1218414069_4_0" index="0" disallow="tram rail_urban rail rail_electric rail_fast ship" speed="20.12" length="9.65" shape="2021.67,1900.03 2023.28,1909.60"/>
        <lane id=":1218414069_4_1" index="1" disallow="tram rail_urban rail rail_electric rail_fast ship" speed="20.12" length="9.65" shape="2018.53,1900.62 2020.12,1910.08"/>
    </edge>
    <edge id=":1218414069_6" function="internal">
        <lane id=":1218414069_6_0" index="0" allow="pedestrian delivery bicycle" speed="6.12" length="7.94" shape="2018.53,1900.62 2018.85,1903.43 2018.62,1905.51 2017.86,1906.88 2016.56,1907.51"/>
    </edge>
    <edge id=":1218414069_7" function="internal">
        <lane id=":1218414069_7_0" index="0" allow="pedestrian delivery bicycle" speed="5.56" length="9.55" shape="2016.00,1904.36 2025.35,1902.43"/>
    </edge>
    <edge id=":1218414069_8" function="internal">
        <lane id=":1218414069_8_0" index="0" allow="pedestrian delivery bicycle" speed="6.05" length="7.83" shape="2016.00,1904.36 2017.45,1904.51 2018.62,1905.51 2019.51,1907.37 2020.12,1910.08"/>
    </edge>
    <edge id=":1218414069_9" function="internal">
        <lane id=":1218414069_9_0" index="0" allow="pedestrian delivery bicycle" speed="3.65" length="4.67" shape="2016.00,1904.36 2017.32,1904.94 2017.86,1905.66 2017.60,1906.52 2016.56,1907.51"/>
    </edge>
    <edge id=":1218414120_0" function="internal">
        <lane id=":1218414120_0_0" index="0" disallow="tram rail_urban rail rail_electric rail_fast ship" speed="20.12" length="9.42" shape="2004.63,1912.64 2003.25,1903.31"/>
        <lane id=":1218414120_0_1" index="1" disallow="tram rail_urban rail rail_electric rail_fast ship" speed="20.12" length="9.42" shape="2007.79,1912.16 2006.42,1902.85"/>
    </edge>
    <edge id=":1218414120_2" function="internal">
        <lane id=":1218414120_2_0" index="0" allow="pedestrian delivery bicycle" speed="6.15" length="7.81" shape="2007.79,1912.16 2007.58,1909.42 2007.87,1907.38 2008.67,1906.05 2009.97,1905.42"/>
    </edge>
    <edge id=":1218414120_3" function="internal">
        <lane id=":1218414120_3_0" index="0" allow="pedestrian delivery bicycle" speed="6.05" length="7.84" shape="2010.52,1908.57 2009.07,1908.43 2007.90,1907.42 2007.02,1905.57 2006.42,1902.85"/>
    </edge>
    <edge id=":1218414120_4" function="internal">
        <lane id=":1218414120_4_0" index="0" allow="pedestrian delivery bicycle" speed="3.65" length="4.67" shape="2010.52,1908.57 2009.20,1907.99 2008.67,1907.28 2008.93,1906.42 2009.97,1905.42"/>
    </edge>
    <edge id=":1218414187_0" function="internal">
        <lane id=":1218414187_0_0" index="0" allow="pedestrian delivery bicycle" speed="6.11" length="6.28" shape="1935.53,1616.04 1934.82,1614.96 1933.67,1614.25 1932.09,1613.93 1930.07,1613.98"/>
    </edge>
    <edge id=":1218414187_1" function="internal">
        <lane id=":1218414187_1_0" index="0" disallow="tram rail_urban rail rail_electric rail_fast ship" speed="20.12" length="9.70" shape="1935.53,1616.04 1931.96,1607.06"/>
        <lane id=":1218414187_1_1" index="1" disallow="tram rail_urban rail rail_electric rail_fast ship" speed="20.12" length="9.70" shape="1938.52,1614.89 1934.93,1605.85"/>
    </edge>
    <edge id=":1218414187_3" function="internal">
        <lane id=":1218414187_3_0" index="0" allow="pedestrian delivery bicycle" speed="4.80" length="5.37" shape="1929.73,1610.80 1931.21,1610.42 1932.08,1609.67 1932.33,1608.55 1931.96,1607.06"/>
    </edge>
    <edge id=":1218414187_4" function="internal">
        <lane id=":1218414187_4_0" index="0" allow="pedestrian delivery bicycle" speed="3.65" length="4.67" shape="1929.73,1610.80 1931.01,1611.46 1931.49,1612.22 1931.18,1613.06 1930.07,1613.98"/>
    </edge>
    <edge id=":1236159064_0" function="internal">
        <lane id=":1236159064_0_0" index="0" disallow="tram rail_urban rail rail_electric rail_fast ship" speed="16.70" length="14.38" shape="2836.47,1835.26 2837.68,1838.71 2839.20,1841.90 2841.07,1844.90 2843.36,1847.75"/>
    </edge>
    <edge id=":1236159064_1" function="internal">
        <lane id=":1236159064_1_0" index="0" disallow="tram rail_urban rail rail_electric rail_fast ship" speed="11.18" length="14.40" shape="2833.28,1837.45 2843.36,1847.75"/>
    </edge>
    <edge id=":1236159108_0" function="internal">
        <lane id=":1236159108_0_0" index="0" disallow="tram rail_urban rail rail_electric rail_fast ship" speed="20.05" length="8.00" shape="2750.24,1776.40 2742.46,1778.22"/>
    </edge>
    <edge id=":1236159108_1" function="internal">
        <lane id=":1236159108_1_0" index="0" disallow="tram rail_urban rail rail_electric rail_fast ship" speed="17.88" length="8.00" shape="2749.48,1773.22 2741.70,1775.11"/>
        <lane id=":1236159108_1_1" index="1" disallow="tram rail_urban rail rail_electric rail_fast ship" speed="17.88" length="8.00" shape="2748.73,1770.11 2740.95,1772.00"/>
    </edge>
    <edge id=":1236159166_0" function="internal">
        <lane id=":1236159166_0_0" index="0" allow="pedestrian delivery bicycle" speed="8.37" length="0.28" shape="3318.81,1985.63 3318.76,1985.56 3318.72,1985.52 3318.68,1985.48 3318.62,1985.42"/>
    </edge>
    <edge id=":1236159166_1" function="internal">
        <lane id=":1236159166_1_0" index="0" allow="pedestrian delivery bicycle" speed="8.37" length="0.85" shape="3320.76,1983.04 3320.95,1983.21 3321.07,1983.33 3321.18,1983.46 3321.34,1983.66"/>
    </edge>
    <edge id=":1236159166_2" function="internal">
        <lane id=":1236159166_2_0" index="0" disallow="tram rail_urban rail rail_electric rail_fast ship" speed="3.65" length="2.34" shape="3320.76,1983.04 3321.12,1984.44 3320.88,1985.30"/>
    </edge>
    <edge id=":1236159166_3" function="internal">
        <lane id=":1236159166_3_0" index="0" disallow="tram rail_urban rail rail_electric rail_fast ship" speed="3.65" length="2.34" shape="3320.88,1985.30 3320.05,1985.63 3318.62,1985.42"/>
    </edge>
    <edge id=":1236569903_0" function="internal">
        <lane id=":1236569903_0_0" index="0" allow="pedestrian delivery bicycle" speed="5.56" length="5.97" shape="2712.82,2010.75 2711.41,2009.68 2710.46,2008.92 2709.57,2008.09 2708.35,2006.82"/>
    </edge>
    <edge id=":1236569903_1" function="internal">
        <lane id=":1236569903_1_0" index="0" allow="pedestrian delivery bicycle" speed="3.65" length="2.34" shape="2712.82,2010.75 2712.35,2009.39 2712.51,2008.51"/>
    </edge>
    <edge id=":1236569903_4" function="internal">
        <lane id=":1236569903_4_0" index="0" allow="pedestrian delivery bicycle" speed="3.65" length="2.34" shape="2712.51,2008.51 2713.31,2008.11 2714.75,2008.20"/>
    </edge>
    <edge id=":1236569903_2" function="internal">
        <lane id=":1236569903_2_0" index="0" allow="pedestrian delivery bicycle" speed="5.56" length="5.44" shape="2710.67,2004.62 2711.79,2005.78 2712.60,2006.53 2713.47,2007.22 2714.75,2008.20"/>
    </edge>
    <edge id=":1236569903_3" function="internal">
        <lane id=":1236569903_3_0" index="0" allow="pedestrian delivery bicycle" speed="3.65" length="2.34" shape="2710.67,2004.62 2710.92,2006.04 2710.61,2006.88"/>
    </edge>
    <edge id=":1236569903_5" function="internal">
        <lane id=":1236569903_5_0" index="0" allow="pedestrian delivery bicycle" speed="3.65" length="2.34" shape="2710.61,2006.88 2709.75,2007.14 2708.35,2006.82"/>
    </edge>
    <edge id=":1236569915_0" function="internal">
        <lane id=":1236569915_0_0" index="0" allow="pedestrian delivery bicycle" speed="5.08" length="5.05" shape="2905.10,1918.59 2904.05,1917.71 2902.97,1917.39 2901.84,1917.61 2900.67,1918.38"/>
    </edge>
    <edge id=":1236569915_1" function="internal">
        <lane id=":1236569915_1_0" index="0" disallow="tram rail_urban rail rail_electric rail_fast ship" speed="11.18" length="9.40" shape="2905.10,1918.59 2898.82,1911.59"/>
    </edge>
    <edge id=":1236569915_2" function="internal">
        <lane id=":1236569915_2_0" index="0" disallow="tram rail_urban rail rail_electric rail_fast ship" speed="3.65" length="2.34" shape="2905.10,1918.59 2904.90,1917.16 2905.22,1916.33"/>
    </edge>
    <edge id=":1236569915_9" function="internal">
        <lane id=":1236569915_9_0" index="0" disallow="tram rail_urban rail rail_electric rail_fast ship" speed="3.65" length="2.34" shape="2905.22,1916.33 2906.09,1916.09 2907.48,1916.45"/>
    </edge>
    <edge id=":1236569915_3" function="internal">
        <lane id=":1236569915_3_0" index="0" disallow="tram rail_urban rail rail_electric rail_fast ship" speed="11.18" length="9.40" shape="2901.20,1909.45 2907.48,1916.45"/>
    </edge>
    <edge id=":1236569915_4" function="internal">
        <lane id=":1236569915_4_0" index="0" allow="pedestrian delivery bicycle" speed="6.85" length="5.11" shape="2901.20,1909.45 2902.76,1911.79 2903.19,1914.05"/>
    </edge>
    <edge id=":1236569915_5" function="internal">
        <lane id=":1236569915_5_0" index="0" disallow="tram rail_urban rail rail_electric rail_fast ship" speed="3.65" length="2.34" shape="2901.20,1909.45 2901.41,1910.88 2901.08,1911.71"/>
    </edge>
    <edge id=":1236569915_10" function="internal">
        <lane id=":1236569915_10_0" index="0" allow="pedestrian delivery bicycle" speed="6.85" length="5.11" shape="2903.19,1914.05 2902.50,1916.25 2900.67,1918.38"/>
    </edge>
    <edge id=":1236569915_11" function="internal">
        <lane id=":1236569915_11_0" index="0" disallow="tram rail_urban rail rail_electric rail_fast ship" speed="3.65" length="2.34" shape="2901.08,1911.71 2900.22,1911.95 2898.82,1911.59"/>
    </edge>
    <edge id=":1236569915_6" function="internal">
        <lane id=":1236569915_6_0" index="0" allow="pedestrian delivery bicycle" speed="5.03" length="5.02" shape="2898.56,1915.97 2899.46,1914.93 2899.80,1913.85 2899.59,1912.74 2898.82,1911.59"/>
    </edge>
    <edge id=":1236569915_7" function="internal">
        <lane id=":1236569915_7_0" index="0" allow="pedestrian delivery bicycle" speed="6.89" length="10.17" shape="2898.56,1915.97 2900.90,1914.44 2903.17,1914.01 2905.36,1914.68 2907.48,1916.45"/>
    </edge>
    <edge id=":1236569915_8" function="internal">
        <lane id=":1236569915_8_0" index="0" allow="pedestrian delivery bicycle" speed="3.65" length="4.67" shape="2898.56,1915.97 2899.99,1915.78 2900.82,1916.12 2901.04,1916.99 2900.67,1918.38"/>
    </edge>
    <edge id=":1236569940_0" function="internal">
        <lane id=":1236569940_0_0" index="0" allow="pedestrian delivery bicycle" speed="5.96" length="6.13" shape="2784.26,2070.44 2783.97,2069.12 2783.17,2068.05 2781.86,2067.24 2780.04,2066.68"/>
    </edge>
    <edge id=":1236569940_1" function="internal">
        <lane id=":1236569940_1_0" index="0" disallow="tram rail_urban rail rail_electric rail_fast ship" speed="11.18" length="9.69" shape="2784.26,2070.44 2784.05,2060.75"/>
    </edge>
    <edge id=":1236569940_2" function="internal">
        <lane id=":1236569940_2_0" index="0" allow="pedestrian delivery bicycle" speed="7.39" length="2.41" shape="2784.26,2070.44 2784.60,2068.06"/>
    </edge>
    <edge id=":1236569940_3" function="internal">
        <lane id=":1236569940_3_0" index="0" disallow="tram rail_urban rail rail_electric rail_fast ship" speed="3.65" length="2.34" shape="2784.26,2070.44 2785.03,2069.22 2785.82,2068.81"/>
    </edge>
    <edge id=":1236569940_16" function="internal">
        <lane id=":1236569940_16_0" index="0" allow="pedestrian delivery bicycle" speed="7.39" length="7.90" shape="2784.60,2068.06 2784.62,2067.95 2785.81,2065.98 2787.83,2064.53 2790.68,2063.60"/>
    </edge>
    <edge id=":1236569940_17" function="internal">
        <lane id=":1236569940_17_0" index="0" disallow="tram rail_urban rail rail_electric rail_fast ship" speed="3.65" length="2.34" shape="2785.82,2068.81 2786.63,2069.19 2787.46,2070.37"/>
    </edge>
    <edge id=":1236569940_4" function="internal">
        <lane id=":1236569940_4_0" index="0" allow="pedestrian delivery bicycle" speed="5.72" length="5.80" shape="2791.32,2066.74 2789.61,2067.27 2788.39,2068.05 2787.68,2069.08 2787.46,2070.37"/>
    </edge>
    <edge id=":1236569940_5" function="internal">
        <lane id=":1236569940_5_0" index="0" allow="pedestrian delivery bicycle" speed="5.56" length="11.40" shape="2791.32,2066.74 2788.18,2067.30 2785.68,2067.47 2783.18,2067.26 2780.04,2066.68"/>
    </edge>
    <edge id=":1236569940_6" function="internal">
        <lane id=":1236569940_6_0" index="0" allow="pedestrian delivery bicycle" speed="6.78" length="11.24" shape="2791.32,2066.74 2788.20,2066.91 2785.95,2065.97 2784.57,2063.92 2784.05,2060.75"/>
    </edge>
    <edge id=":1236569940_7" function="internal">
        <lane id=":1236569940_7_0" index="0" allow="pedestrian delivery bicycle" speed="3.65" length="4.67" shape="2791.32,2066.74 2789.98,2066.20 2789.43,2065.49 2789.66,2064.63 2790.68,2063.60"/>
    </edge>
    <edge id=":1236569940_8" function="internal">
        <lane id=":1236569940_8_0" index="0" allow="pedestrian delivery bicycle" speed="4.92" length="5.37" shape="2787.25,2060.69 2787.50,2062.22 2788.15,2063.22 2789.21,2063.68 2790.68,2063.60"/>
    </edge>
    <edge id=":1236569940_9" function="internal">
        <lane id=":1236569940_9_0" index="0" disallow="tram rail_urban rail rail_electric rail_fast ship" speed="11.18" length="9.69" shape="2787.25,2060.69 2787.46,2070.37"/>
    </edge>
    <edge id=":1236569940_10" function="internal">
        <lane id=":1236569940_10_0" index="0" allow="pedestrian delivery bicycle" speed="6.72" length="2.53" shape="2787.25,2060.69 2786.95,2063.19"/>
    </edge>
    <edge id=":1236569940_11" function="internal">
        <lane id=":1236569940_11_0" index="0" disallow="tram rail_urban rail rail_electric rail_fast ship" speed="3.65" length="2.34" shape="2787.25,2060.69 2786.48,2061.90 2785.69,2062.32"/>
    </edge>
    <edge id=":1236569940_18" function="internal">
        <lane id=":1236569940_18_0" index="0" allow="pedestrian delivery bicycle" speed="6.72" length="8.83" shape="2786.95,2063.19 2786.86,2063.89 2785.53,2065.95 2783.26,2066.88 2780.04,2066.68"/>
    </edge>
    <edge id=":1236569940_19" function="internal">
        <lane id=":1236569940_19_0" index="0" disallow="tram rail_urban rail rail_electric rail_fast ship" speed="3.65" length="2.34" shape="2785.69,2062.32 2784.88,2061.94 2784.05,2060.75"/>
    </edge>
    <edge id=":1236569940_12" function="internal">
        <lane id=":1236569940_12_0" index="0" allow="pedestrian delivery bicycle" speed="4.83" length="5.29" shape="2780.69,2063.55 2782.19,2063.64 2783.25,2063.21 2783.87,2062.25 2784.05,2060.75"/>
    </edge>
    <edge id=":1236569940_13" function="internal">
        <lane id=":1236569940_13_0" index="0" allow="pedestrian delivery bicycle" speed="5.56" length="10.11" shape="2780.69,2063.55 2783.63,2064.13 2785.68,2064.33 2787.74,2064.16 2790.68,2063.60"/>
    </edge>
    <edge id=":1236569940_14" function="internal">
        <lane id=":1236569940_14_0" index="0" allow="pedestrian delivery bicycle" speed="7.59" length="10.47" shape="2780.69,2063.55 2783.61,2064.49 2785.71,2065.95 2786.99,2067.91 2787.46,2070.37"/>
    </edge>
    <edge id=":1236569940_15" function="internal">
        <lane id=":1236569940_15_0" index="0" allow="pedestrian delivery bicycle" speed="3.65" length="4.67" shape="2780.69,2063.55 2781.70,2064.58 2781.93,2065.44 2781.38,2066.14 2780.04,2066.68"/>
    </edge>
    <edge id=":1236569944_0" function="internal">
        <lane id=":1236569944_0_0" index="0" allow="pedestrian delivery bicycle" speed="5.62" length="5.69" shape="2658.69,1926.78 2657.38,1925.64 2656.10,1925.06 2654.86,1925.03 2653.66,1925.55"/>
    </edge>
    <edge id=":1236569944_1" function="internal">
        <lane id=":1236569944_1_0" index="0" allow="pedestrian delivery bicycle" speed="3.65" length="4.67" shape="2658.69,1926.78 2658.45,1925.36 2658.76,1924.52 2659.62,1924.26 2661.02,1924.59"/>
    </edge>
    <edge id=":1236569944_2" function="internal">
        <lane id=":1236569944_2_0" index="0" allow="pedestrian delivery bicycle" speed="4.89" length="5.20" shape="2661.50,1920.24 2660.43,1921.22 2659.99,1922.27 2660.19,1923.40 2661.02,1924.59"/>
    </edge>
    <edge id=":1236569944_3" function="internal">
        <lane id=":1236569944_3_0" index="0" disallow="tram rail_urban rail rail_electric rail_fast ship" speed="11.18" length="9.48" shape="2661.50,1920.24 2653.66,1925.55"/>
    </edge>
    <edge id=":1236569956_0" function="internal">
        <lane id=":1236569956_0_0" index="0" allow="pedestrian delivery bicycle" speed="5.33" length="5.22" shape="2790.64,2022.98 2789.18,2023.28 2788.12,2023.92 2787.46,2024.89 2787.21,2026.18"/>
    </edge>
    <edge id=":1236569956_1" function="internal">
        <lane id=":1236569956_1_0" index="0" allow="pedestrian delivery bicycle" speed="5.56" length="10.57" shape="2790.64,2022.98 2787.59,2023.19 2785.36,2023.20 2783.15,2022.99 2780.12,2022.54"/>
    </edge>
    <edge id=":1236569956_2" function="internal">
        <lane id=":1236569956_2_0" index="0" allow="pedestrian delivery bicycle" speed="7.01" length="10.83" shape="2790.64,2022.98 2787.82,2022.77 2785.74,2021.61 2784.41,2019.49 2783.83,2016.43"/>
    </edge>
    <edge id=":1236569956_3" function="internal">
        <lane id=":1236569956_3_0" index="0" allow="pedestrian delivery bicycle" speed="3.65" length="4.67" shape="2790.64,2022.98 2789.38,2022.28 2788.92,2021.52 2789.25,2020.69 2790.38,2019.79"/>
    </edge>
    <edge id=":1236569956_4" function="internal">
        <lane id=":1236569956_4_0" index="0" allow="pedestrian delivery bicycle" speed="5.24" length="5.58" shape="2787.02,2016.24 2787.32,2017.89 2787.98,2019.03 2789.00,2019.67 2790.38,2019.79"/>
    </edge>
    <edge id=":1236569956_5" function="internal">
        <lane id=":1236569956_5_0" index="0" disallow="tram rail_urban rail rail_electric rail_fast ship" speed="11.18" length="9.95" shape="2787.02,2016.24 2787.20,2019.19 2787.29,2021.21 2787.29,2023.23 2787.21,2026.18"/>
    </edge>
    <edge id=":1236569956_6" function="internal">
        <lane id=":1236569956_6_0" index="0" allow="pedestrian delivery bicycle" speed="6.72" length="2.80" shape="2787.02,2016.24 2786.79,2019.03"/>
    </edge>
    <edge id=":1236569956_7" function="internal">
        <lane id=":1236569956_7_0" index="0" disallow="tram rail_urban rail rail_electric rail_fast ship" speed="3.65" length="2.34" shape="2787.02,2016.24 2786.30,2017.49 2785.52,2017.93"/>
    </edge>
    <edge id=":1236569956_16" function="internal">
        <lane id=":1236569956_16_0" index="0" allow="pedestrian delivery bicycle" speed="6.72" length="8.46" shape="2786.79,2019.03 2786.76,2019.42 2785.52,2021.53 2783.30,2022.57 2780.12,2022.54"/>
    </edge>
    <edge id=":1236569956_17" function="internal">
        <lane id=":1236569956_17_0" index="0" disallow="tram rail_urban rail rail_electric rail_fast ship" speed="3.65" length="2.34" shape="2785.52,2017.93 2784.70,2017.58 2783.83,2016.43"/>
    </edge>
    <edge id=":1236569956_8" function="internal">
        <lane id=":1236569956_8_0" index="0" allow="pedestrian delivery bicycle" speed="4.85" length="5.27" shape="2780.60,2019.38 2782.09,2019.39 2783.13,2018.90 2783.71,2017.92 2783.83,2016.43"/>
    </edge>
    <edge id=":1236569956_9" function="internal">
        <lane id=":1236569956_9_0" index="0" allow="pedestrian delivery bicycle" speed="5.56" length="9.83" shape="2780.60,2019.38 2783.48,2019.81 2785.47,2020.01 2787.47,2020.00 2790.38,2019.79"/>
    </edge>
    <edge id=":1236569956_10" function="internal">
        <lane id=":1236569956_10_0" index="0" allow="pedestrian delivery bicycle" speed="7.29" length="10.54" shape="2780.60,2019.38 2783.56,2020.19 2785.65,2021.60 2786.87,2023.59 2787.21,2026.18"/>
    </edge>
    <edge id=":1236569956_11" function="internal">
        <lane id=":1236569956_11_0" index="0" allow="pedestrian delivery bicycle" speed="3.65" length="4.67" shape="2780.60,2019.38 2781.66,2020.35 2781.94,2021.20 2781.42,2021.93 2780.12,2022.54"/>
    </edge>
    <edge id=":1236569956_12" function="internal">
        <lane id=":1236569956_12_0" index="0" allow="pedestrian delivery bicycle" speed="5.60" length="5.82" shape="2784.01,2026.08 2783.80,2024.76 2783.09,2023.73 2781.86,2022.99 2780.12,2022.54"/>
    </edge>
    <edge id=":1236569956_13" function="internal">
        <lane id=":1236569956_13_0" index="0" disallow="tram rail_urban rail rail_electric rail_fast ship" speed="11.18" length="9.66" shape="2784.01,2026.08 2784.09,2023.22 2784.09,2021.25 2784.00,2019.29 2783.83,2016.43"/>
    </edge>
    <edge id=":1236569956_14" function="internal">
        <lane id=":1236569956_14_0" index="0" allow="pedestrian delivery bicycle" speed="7.09" length="2.31" shape="2784.01,2026.08 2784.43,2023.81"/>
    </edge>
    <edge id=":1236569956_15" function="internal">
        <lane id=":1236569956_15_0" index="0" disallow="tram rail_urban rail rail_electric rail_fast ship" speed="3.65" length="2.34" shape="2784.01,2026.08 2784.85,2024.91 2785.66,2024.53"/>
    </edge>
    <edge id=":1236569956_18" function="internal">
        <lane id=":1236569956_18_0" index="0" allow="pedestrian delivery bicycle" speed="7.09" length="7.65" shape="2784.43,2023.81 2784.48,2023.52 2785.70,2021.62 2787.66,2020.38 2790.38,2019.79"/>
    </edge>
    <edge id=":1236569956_19" function="internal">
        <lane id=":1236569956_19_0" index="0" disallow="tram rail_urban rail rail_electric rail_fast ship" speed="3.65" length="2.34" shape="2785.66,2024.53 2786.45,2024.96 2787.21,2026.18"/>
    </edge>
    <edge id=":1236569980_0" function="internal">
        <lane id=":1236569980_0_0" index="0" allow="pedestrian delivery bicycle" speed="5.45" length="5.14" shape="2763.81,1974.51 2762.63,1974.00 2761.47,1973.97 2760.33,1974.43 2759.21,1975.37"/>
    </edge>
    <edge id=":1236569980_1" function="internal">
        <lane id=":1236569980_1_0" index="0" allow="pedestrian delivery bicycle" speed="5.56" length="9.06" shape="2763.81,1974.51 2761.55,1973.06 2760.07,1971.97 2758.71,1970.72 2756.83,1968.81"/>
    </edge>
    <edge id=":1236569980_2" function="internal">
        <lane id=":1236569980_2_0" index="0" allow="pedestrian delivery bicycle" speed="3.65" length="4.67" shape="2763.81,1974.51 2763.22,1973.19 2763.31,1972.30 2764.07,1971.83 2765.51,1971.80"/>
    </edge>
    <edge id=":1236569980_3" function="internal">
        <lane id=":1236569980_3_0" index="0" allow="pedestrian delivery bicycle" speed="5.56" length="8.30" shape="2759.11,1966.57 2760.84,1968.32 2762.08,1969.47 2763.44,1970.47 2765.51,1971.80"/>
    </edge>
    <edge id=":1236569980_4" function="internal">
        <lane id=":1236569980_4_0" index="0" allow="pedestrian delivery bicycle" speed="5.56" length="9.95" shape="2759.11,1966.57 2760.72,1968.75 2761.27,1970.95 2760.76,1973.16 2759.21,1975.37"/>
    </edge>
    <edge id=":1236569980_5" function="internal">