<?xml version="1.0" encoding="UTF-8"?>

<!-- generated on 04/13/20 19:25:37 by Eclipse SUMO GUI Version 1.5.0
-->

<configuration xmlns:xsi="http://www.w3.org/2001/XMLSchema-instance" xsi:noNamespaceSchemaLocation="http://sumo.dlr.de/xsd/sumoConfiguration.xsd">

    <input>
        <net-file value="sumoupdated.net.xml"/>
          <route-files value="trips.trips.xml"/> 
       
     <time>
        <begin value="0"/>
        <end value="1000"/>
    </time>
    </input>

</configuration>
