<?xml version="1.0" encoding="UTF-8"?>

<!-- generated on 11/19/19 18:14:32 by Eclipse SUMO netedit Version 1.2.0
<configuration xmlns:xsi="http://www.w3.org/2001/XMLSchema-instance" xsi:noNamespaceSchemaLocation="http://sumo.dlr.de/xsd/netconvertConfiguration.xsd">

    <input>
        <sumo-net-file value="C:\Users\Sid\OneDrive%20-%20George%20Mason%20University\Documents\George%20Mason%20University\Research_dump\CAV_research\SUMO_Sandbox_Sid\Project_Sandbox\new_proj.net.xml"/>
    </input>

    <output>
        <output-file value="C:\Users\Sid\OneDrive%20-%20George%20Mason%20University\Documents\George%20Mason%20University\Research_dump\CAV_research\SUMO_Sandbox_Sid\Project_Sandbox\new_proj.net.xml"/>
    </output>

    <processing>
        <geometry.max-grade.fix value="false"/>
        <offset.disable-normalization value="true"/>
        <lefthand value="false"/>
    </processing>

    <junctions>
        <no-internal-links value="false"/>
        <no-turnarounds value="true"/>
        <junctions.corner-detail value="5"/>
        <junctions.limit-turn-speed value="5.5"/>
        <rectangular-lane-cut value="false"/>
    </junctions>

    <pedestrian>
        <walkingareas value="false"/>
    </pedestrian>

</configuration>
-->

<additional xmlns:xsi="http://www.w3.org/2001/XMLSchema-instance" xsi:noNamespaceSchemaLocation="http://sumo.dlr.de/xsd/additional_file.xsd">
    <tlLogic id="cluster_660065977_660066288" type="static" programID="0" offset="0">
        <phase duration="15" state="rrrGGrrrrrrrGGrrrr"/>
        <phase duration="5" state="rrryyrrrrrrrGGrrrr"/>
        <phase duration="3" state="rrrrrrrrrrrryyrrrr"/>
        <phase duration="1" state="rrrrrrrrrrGGyyrrrr"/>
        <phase duration="3" state="rrrrrrrrrgGGrrrrrr"/>
        <phase duration="96" state="gGGgrrrrrgGGrrrrrr"/>
        <phase duration="5" state="yyyrrrrrryyyrrrrrr"/>
        <phase duration="3" state="rrrrrrrrrrrrrrrrrr"/>
        <phase duration="31" state="rrrrrGGggrrrrrrGGg"/>
        <phase duration="5" state="rrrrryyyyrrrrrryyy"/>
        <phase duration="3" state="rrrrrrrrrrrrrrrrrr"/>
    </tlLogic>
</additional>
